Version 4
SHEET 1 880 680
WIRE -128 -96 -128 -112
WIRE -96 -96 -96 -112
WIRE 192 -96 192 -112
WIRE 224 -96 224 -112
WIRE -144 -64 -160 -64
WIRE 64 -64 64 -112
WIRE 64 -64 -48 -64
WIRE 176 -64 64 -64
WIRE 288 -64 272 -64
WIRE -128 -16 -128 -32
WIRE -96 -16 -96 -32
WIRE 192 -16 192 -32
WIRE 224 -16 224 -32
WIRE 64 64 64 48
WIRE 288 64 288 -64
WIRE 304 64 288 64
WIRE 384 64 368 64
WIRE -160 80 -160 -64
WIRE 48 80 -160 80
WIRE 144 96 112 96
WIRE 48 112 -32 112
WIRE 384 112 384 64
WIRE 64 144 64 128
WIRE 176 192 176 176
WIRE 144 208 144 96
WIRE 160 208 144 208
WIRE 288 208 288 64
WIRE 288 208 208 208
WIRE -32 224 -32 112
WIRE -32 224 -80 224
WIRE 160 240 144 240
WIRE 288 240 208 240
WIRE 176 272 176 256
WIRE 288 288 288 240
WIRE 64 320 64 304
WIRE -32 336 -32 224
WIRE 48 336 -32 336
WIRE -96 352 -96 336
WIRE 144 352 144 240
WIRE 144 352 112 352
WIRE -160 368 -160 80
WIRE -112 368 -160 368
WIRE 48 368 -64 368
WIRE -96 400 -96 384
WIRE 64 400 64 384
WIRE 288 400 288 368
FLAG 64 48 vdd
IOPIN 64 48 BiDir
FLAG 64 144 vss
IOPIN 64 144 BiDir
FLAG 64 304 vdd
IOPIN 64 304 BiDir
FLAG 64 400 vss
IOPIN 64 400 BiDir
FLAG -96 -112 w
IOPIN -96 -112 In
FLAG 224 -112 r
IOPIN 224 -112 In
FLAG -80 224 ~w
IOPIN -80 224 In
FLAG 64 -112 d
IOPIN 64 -112 BiDir
FLAG -96 -16 ~w
IOPIN -96 -16 In
FLAG 224 -16 ~r
IOPIN 224 -16 In
FLAG -128 -112 vdd
IOPIN -128 -112 BiDir
FLAG -128 -16 vss
IOPIN -128 -16 BiDir
FLAG 192 -112 vdd
IOPIN 192 -112 BiDir
FLAG 192 -16 vss
IOPIN 192 -16 BiDir
FLAG 176 272 vss
IOPIN 176 272 BiDir
FLAG 176 176 vdd
IOPIN 176 176 BiDir
FLAG 288 400 vss
IOPIN 288 400 BiDir
FLAG -96 400 vss
IOPIN -96 400 BiDir
FLAG -96 336 vdd
IOPIN -96 336 BiDir
FLAG 384 112 vss
IOPIN 384 112 BiDir
SYMBOL sr_latch 192 224 R0
WINDOW 0 29 -41 Bottom 2
SYMATTR InstName X1
SYMBOL nor 80 32 R0
WINDOW 0 12 16 Left 2
SYMATTR InstName X2
SYMBOL nor 80 288 R0
WINDOW 0 14 23 Left 2
SYMATTR InstName X3
SYMBOL transmission_gate -96 -64 R0
WINDOW 0 43 -41 Bottom 2
SYMATTR InstName X7
SYMBOL transmission_gate 224 -64 R0
WINDOW 0 43 -41 Bottom 2
SYMATTR InstName X6
SYMBOL res 272 272 R0
SYMATTR InstName R1
SYMATTR Value 400k
SYMBOL not -112 368 R0
WINDOW 0 51 -32 Bottom 2
SYMATTR InstName X4
SYMBOL cap 368 48 R90
WINDOW 0 0 32 VBottom 2
WINDOW 3 32 32 VTop 2
SYMATTR InstName C1
SYMATTR Value 1n
