Version 4
SHEET 1 880 680
WIRE -96 128 -144 128
WIRE -288 160 -288 144
WIRE -192 160 -192 144
WIRE -96 160 -144 160
WIRE -304 176 -352 176
WIRE -208 176 -256 176
WIRE -96 192 -144 192
WIRE -288 208 -288 192
WIRE -192 208 -192 192
WIRE -96 224 -144 224
FLAG -352 176 in
IOPIN -352 176 In
FLAG -96 128 out0
IOPIN -96 128 In
FLAG -96 160 out1
IOPIN -96 160 In
FLAG -96 192 out2
IOPIN -96 192 In
FLAG -96 224 out3
IOPIN -96 224 In
FLAG -192 144 vdd
IOPIN -192 144 BiDir
FLAG -192 208 vss
IOPIN -192 208 BiDir
FLAG -288 208 vss
IOPIN -288 208 BiDir
FLAG -288 144 vdd
IOPIN -288 144 BiDir
SYMBOL 1_to_4_not -192 176 R0
WINDOW 0 -36 -22 Bottom 2
SYMATTR InstName X5
SYMBOL not -304 176 R0
WINDOW 0 -21 -16 Bottom 2
SYMATTR InstName X6
