Version 4
SHEET 1 880 680
WIRE 112 -16 48 -16
WIRE 144 -16 144 -32
WIRE 144 -16 112 -16
WIRE 176 -16 144 -16
WIRE 240 -16 176 -16
WIRE 48 16 48 -16
WIRE 32 32 -16 32
WIRE 368 32 80 32
WIRE 112 112 112 -16
WIRE -16 128 -16 32
WIRE 96 128 -16 128
WIRE 368 128 144 128
WIRE -16 176 -16 128
WIRE -16 176 -64 176
WIRE 176 208 176 -16
WIRE -16 224 -16 176
WIRE 160 224 -16 224
WIRE 368 224 208 224
WIRE 240 304 240 -16
WIRE -16 320 -16 224
WIRE 224 320 -16 320
WIRE 368 320 272 320
WIRE 48 368 48 48
WIRE 112 368 112 144
WIRE 112 368 48 368
WIRE 144 368 112 368
WIRE 176 368 176 240
WIRE 176 368 144 368
WIRE 240 368 240 336
WIRE 240 368 176 368
WIRE 144 384 144 368
FLAG -64 176 in
IOPIN -64 176 In
FLAG 368 32 out0
IOPIN 368 32 In
FLAG 368 128 out1
IOPIN 368 128 In
FLAG 368 224 out2
IOPIN 368 224 In
FLAG 368 320 out3
IOPIN 368 320 In
FLAG 144 384 vss
IOPIN 144 384 BiDir
FLAG 144 -32 vdd
IOPIN 144 -32 BiDir
SYMBOL not 32 32 R0
SYMATTR InstName X1
SYMBOL not 96 128 R0
SYMATTR InstName X2
SYMBOL not 160 224 R0
SYMATTR InstName X3
SYMBOL not 224 320 R0
SYMATTR InstName X4
