Version 4
SHEET 1 880 992
WIRE 192 96 192 80
WIRE 176 112 144 112
WIRE 256 112 224 112
WIRE 176 144 64 144
WIRE 256 144 224 144
WIRE 192 176 192 160
WIRE -96 224 -96 208
WIRE -304 256 -304 240
WIRE -144 256 -176 256
WIRE 0 256 0 240
WIRE -320 272 -336 272
WIRE -16 272 -32 272
WIRE 64 272 64 144
WIRE 64 272 32 272
WIRE -144 288 -256 288
WIRE -320 304 -336 304
WIRE 0 304 0 288
WIRE -304 336 -304 320
WIRE -96 336 -96 320
WIRE 192 352 192 336
WIRE 176 368 144 368
WIRE 256 368 224 368
WIRE 64 400 64 272
WIRE 176 400 64 400
WIRE 256 400 224 400
WIRE 192 432 192 416
WIRE -208 480 -208 464
WIRE -224 496 -240 496
WIRE -144 512 -160 512
WIRE -224 528 -272 528
WIRE -208 560 -208 544
WIRE -336 624 -336 608
WIRE -352 640 -384 640
WIRE -272 640 -272 528
WIRE -272 640 -304 640
WIRE -336 672 -336 656
WIRE -208 736 -208 720
WIRE -272 752 -272 640
WIRE -224 752 -272 752
WIRE -144 768 -160 768
WIRE -224 784 -240 784
WIRE -208 816 -208 800
FLAG 192 176 vss
IOPIN 192 176 BiDir
FLAG 192 432 vss
IOPIN 192 432 BiDir
FLAG 192 336 vdd
IOPIN 192 336 BiDir
FLAG 192 80 vdd
IOPIN 192 80 BiDir
FLAG 256 144 ~q0
IOPIN 256 144 Out
FLAG 256 112 q0
IOPIN 256 112 Out
FLAG 256 400 ~q1
IOPIN 256 400 Out
FLAG 256 368 q1
IOPIN 256 368 Out
FLAG -176 256 clk
IOPIN -176 256 In
FLAG 0 304 vss
IOPIN 0 304 BiDir
FLAG 0 240 vdd
IOPIN 0 240 BiDir
FLAG -96 336 vss
IOPIN -96 336 BiDir
FLAG -96 208 vdd
IOPIN -96 208 BiDir
FLAG -384 640 rst
IOPIN -384 640 In
FLAG -336 672 vss
IOPIN -336 672 BiDir
FLAG -336 608 vdd
IOPIN -336 608 BiDir
FLAG -208 464 vdd
IOPIN -208 464 BiDir
FLAG -208 560 vss
IOPIN -208 560 BiDir
FLAG -208 720 vdd
IOPIN -208 720 BiDir
FLAG -208 816 vss
IOPIN -208 816 BiDir
FLAG -240 784 d1
IOPIN -240 784 In
FLAG -240 496 d0
IOPIN -240 496 In
FLAG -336 272 rst
IOPIN -336 272 In
FLAG -336 304 ie
IOPIN -336 304 In
FLAG -144 512 ~d0
FLAG -144 768 ~d1
FLAG 144 112 ~d0
FLAG 144 368 ~d1
FLAG -304 240 vdd
IOPIN -304 240 BiDir
FLAG -304 336 vss
IOPIN -304 336 BiDir
SYMBOL d_flip_flop 240 160 R0
SYMATTR InstName X1
SYMBOL d_flip_flop 240 416 R0
SYMATTR InstName X2
SYMBOL clock_gate -80 272 R0
WINDOW 0 20 -70 Bottom 2
SYMATTR InstName X3
SYMBOL not -16 272 R0
WINDOW 0 55 -54 Bottom 2
SYMATTR InstName X4
SYMBOL nand -192 704 R0
SYMATTR InstName X6
SYMBOL not -352 640 R0
WINDOW 0 55 -54 Bottom 2
SYMATTR InstName X7
SYMBOL nand -192 448 R0
SYMATTR InstName X5
SYMBOL or -288 224 R0
WINDOW 0 13 12 Left 2
SYMATTR InstName X8
