Version 4
SHEET 1 880 680
WIRE 192 96 192 80
WIRE 192 96 144 96
WIRE 240 96 192 96
WIRE 144 128 144 96
WIRE 112 144 112 96
WIRE 128 144 112 144
WIRE 240 144 240 96
WIRE 128 160 96 160
WIRE 224 160 192 160
WIRE 288 160 272 160
WIRE 128 176 112 176
WIRE 144 208 144 192
WIRE 192 208 144 208
WIRE 240 208 240 176
WIRE 240 208 192 208
WIRE 112 224 112 176
WIRE 192 224 192 208
FLAG 192 80 vdd
IOPIN 192 80 BiDir
FLAG 192 224 vss
IOPIN 192 224 BiDir
FLAG 288 160 out
IOPIN 288 160 Out
FLAG 112 224 c
IOPIN 112 224 In
FLAG 112 96 a
IOPIN 112 96 In
FLAG 96 160 b
IOPIN 96 160 In
SYMBOL 3_way_nand 160 96 R0
SYMATTR InstName X1
SYMBOL not 224 160 R0
SYMATTR InstName X2
