Version 4
SHEET 1 880 680
WIRE -224 -304 -224 -320
WIRE -224 -192 -224 -224
WIRE -160 -192 -224 -192
WIRE -224 -176 -224 -192
WIRE -128 -128 -224 -128
WIRE -272 -96 -288 -96
WIRE -224 -64 -224 -80
WIRE -160 -16 -224 -16
WIRE -272 16 -288 16
WIRE -192 80 -224 80
WIRE -272 112 -288 112
WIRE -224 160 -224 128
WIRE -192 160 -192 80
WIRE -160 160 -160 -16
WIRE -128 160 -128 -128
FLAG -160 -192 out
IOPIN -160 -192 Out
FLAG -288 -96 a
IOPIN -288 -96 In
FLAG -288 16 b
IOPIN -288 16 In
FLAG -224 160 vss
IOPIN -224 160 BiDir
FLAG -224 -320 vdd
IOPIN -224 -320 BiDir
FLAG -288 112 c
IOPIN -288 112 In
FLAG -160 160 vss
IOPIN -160 160 BiDir
FLAG -128 160 vss
IOPIN -128 160 BiDir
FLAG -192 160 vss
IOPIN -192 160 BiDir
SYMBOL res -240 -320 R0
SYMATTR InstName R1
SYMATTR Value 1k
SYMBOL nmos_4t -272 -176 R0
SYMATTR InstName X1
SYMBOL nmos_4t -272 -64 R0
SYMATTR InstName X2
SYMBOL nmos_4t -272 32 R0
SYMATTR InstName X3
