Version 4
SHEET 1 880 1088
WIRE 192 96 192 80
WIRE 176 112 144 112
WIRE 352 112 224 112
WIRE 176 144 -48 144
WIRE 256 144 224 144
WIRE 192 176 192 160
WIRE -112 256 -112 240
WIRE -128 272 -144 272
WIRE -48 272 -48 144
WIRE -48 272 -80 272
WIRE -112 304 -112 288
WIRE 192 352 192 336
WIRE 176 368 144 368
WIRE 352 368 224 368
WIRE -48 400 -48 272
WIRE 176 400 -48 400
WIRE 256 400 224 400
WIRE 192 432 192 416
WIRE -256 480 -256 464
WIRE -304 512 -352 512
WIRE -144 528 -144 272
WIRE -144 528 -192 528
WIRE -304 544 -352 544
WIRE -256 592 -256 576
WIRE 192 608 192 592
WIRE 176 624 144 624
WIRE 352 624 224 624
WIRE 176 656 -48 656
WIRE 256 656 224 656
WIRE 192 688 192 672
WIRE -112 768 -112 752
WIRE -144 784 -144 528
WIRE -128 784 -144 784
WIRE -48 784 -48 656
WIRE -48 784 -80 784
WIRE -112 816 -112 800
WIRE 192 864 192 848
WIRE 176 880 144 880
WIRE 352 880 224 880
WIRE -48 912 -48 784
WIRE 176 912 -48 912
WIRE 256 912 224 912
WIRE 192 944 192 928
FLAG 192 176 vss
IOPIN 192 176 BiDir
FLAG 192 432 vss
IOPIN 192 432 BiDir
FLAG 192 336 vdd
IOPIN 192 336 BiDir
FLAG 192 80 vdd
IOPIN 192 80 BiDir
FLAG 256 144 q0
IOPIN 256 144 Out
FLAG 256 400 q1
IOPIN 256 400 Out
FLAG 144 368 d1
IOPIN 144 368 In
FLAG 144 112 d0
IOPIN 144 112 In
FLAG 192 688 vss
IOPIN 192 688 BiDir
FLAG 192 944 vss
IOPIN 192 944 BiDir
FLAG 192 848 vdd
IOPIN 192 848 BiDir
FLAG 192 592 vdd
IOPIN 192 592 BiDir
FLAG 256 656 q2
IOPIN 256 656 Out
FLAG 256 912 q3
IOPIN 256 912 Out
FLAG 144 880 d3
IOPIN 144 880 In
FLAG 144 624 d2
IOPIN 144 624 In
FLAG 352 192 vss
IOPIN 352 192 BiDir
FLAG 352 448 vss
IOPIN 352 448 BiDir
FLAG 352 704 vss
IOPIN 352 704 BiDir
FLAG 352 960 vss
IOPIN 352 960 BiDir
FLAG -112 816 vss
IOPIN -112 816 BiDir
FLAG -112 752 vdd
IOPIN -112 752 BiDir
FLAG -112 304 vss
IOPIN -112 304 BiDir
FLAG -112 240 vdd
IOPIN -112 240 BiDir
FLAG -352 544 ie
IOPIN -352 544 In
FLAG -352 512 clk
IOPIN -352 512 In
FLAG -256 592 vss
IOPIN -256 592 BiDir
FLAG -256 464 vdd
IOPIN -256 464 BiDir
SYMBOL res 336 96 R0
SYMATTR InstName R1
SYMATTR Value 100k
SYMBOL res 336 352 R0
SYMATTR InstName R2
SYMATTR Value 100k
SYMBOL res 336 608 R0
SYMATTR InstName R3
SYMATTR Value 100k
SYMBOL res 336 864 R0
SYMATTR InstName R4
SYMATTR Value 100k
SYMBOL not -128 784 R0
SYMATTR InstName X5
SYMBOL not -128 272 R0
SYMATTR InstName X6
SYMBOL d_flip_flop 240 160 R0
SYMATTR InstName X1
SYMBOL d_flip_flop 240 416 R0
SYMATTR InstName X2
SYMBOL d_flip_flop 240 672 R0
SYMATTR InstName X3
SYMBOL d_flip_flop 240 928 R0
SYMATTR InstName X4
SYMBOL clock_gate -240 528 R0
SYMATTR InstName X7
