Version 4
SHEET 1 1112 680
WIRE 464 208 464 192
WIRE 464 336 464 288
WIRE 480 336 464 336
WIRE 352 400 128 400
WIRE 464 400 464 336
WIRE 464 400 352 400
WIRE 576 400 464 400
WIRE 800 400 576 400
WIRE 128 416 128 400
WIRE 352 416 352 400
WIRE 576 416 576 400
WIRE 800 416 800 400
WIRE 144 464 128 464
WIRE 368 464 352 464
WIRE 592 464 576 464
WIRE 816 464 800 464
WIRE 80 496 64 496
WIRE 304 496 288 496
WIRE 528 496 512 496
WIRE 752 496 736 496
WIRE 128 528 128 512
WIRE 144 528 144 464
WIRE 144 528 128 528
WIRE 352 528 352 512
WIRE 352 528 144 528
WIRE 368 528 368 464
WIRE 368 528 352 528
WIRE 464 528 368 528
WIRE 576 528 576 512
WIRE 576 528 464 528
WIRE 592 528 592 464
WIRE 592 528 576 528
WIRE 800 528 800 512
WIRE 800 528 592 528
WIRE 816 528 816 464
WIRE 816 528 800 528
WIRE 464 544 464 528
FLAG 464 192 vdd
IOPIN 464 192 BiDir
FLAG 464 544 vss
IOPIN 464 544 BiDir
FLAG 288 496 b
IOPIN 288 496 In
FLAG 64 496 a
IOPIN 64 496 In
FLAG 736 496 d
IOPIN 736 496 In
FLAG 512 496 c
IOPIN 512 496 In
FLAG 480 336 out
IOPIN 480 336 Out
SYMBOL res 448 192 R0
SYMATTR InstName R1
SYMATTR Value 1k
SYMBOL nmos_4t 80 416 R0
SYMATTR InstName X1
SYMBOL nmos_4t 304 416 R0
SYMATTR InstName X2
SYMBOL nmos_4t 528 416 R0
SYMATTR InstName X3
SYMBOL nmos_4t 752 416 R0
SYMATTR InstName X4
