Version 4
SHEET 1 880 680
WIRE 304 192 304 176
WIRE 304 192 208 192
WIRE 320 192 304 192
WIRE 400 192 320 192
WIRE 384 224 112 224
WIRE 192 256 112 256
WIRE 304 256 192 256
WIRE 192 272 192 256
WIRE 176 288 160 288
WIRE 208 288 208 192
WIRE 352 304 224 304
WIRE 384 304 384 224
WIRE 176 320 160 320
WIRE 352 320 352 304
WIRE 368 320 352 320
WIRE 400 320 400 192
WIRE 304 336 304 256
WIRE 288 352 272 352
WIRE 320 352 320 192
WIRE 368 352 352 352
WIRE 352 368 352 352
WIRE 352 368 336 368
WIRE 288 384 272 384
WIRE 208 416 208 320
WIRE 304 416 208 416
WIRE 320 416 320 384
WIRE 320 416 304 416
WIRE 400 416 400 352
WIRE 400 416 320 416
WIRE 304 432 304 416
FLAG 160 320 b
IOPIN 160 320 In
FLAG 160 288 a
IOPIN 160 288 In
FLAG 272 352 c
IOPIN 272 352 In
FLAG 272 384 d
IOPIN 272 384 In
FLAG 112 256 sel0
IOPIN 112 256 In
FLAG 112 224 sel1
IOPIN 112 224 In
FLAG 304 432 vss
IOPIN 304 432 BiDir
FLAG 304 176 vdd
IOPIN 304 176 BiDir
FLAG 416 336 out
IOPIN 416 336 Out
SYMBOL mux 192 304 R0
WINDOW 0 38 -17 Bottom 2
SYMATTR InstName X1
SYMBOL mux 304 368 R0
WINDOW 0 35 -19 Bottom 2
SYMATTR InstName X2
SYMBOL mux 384 336 R0
WINDOW 0 35 -16 Bottom 2
SYMATTR InstName X3
