Version 4
SHEET 1 880 1036
WIRE 272 -48 224 -48
WIRE 320 -48 272 -48
WIRE 368 -48 320 -48
WIRE 384 -48 384 -64
WIRE 384 -48 368 -48
WIRE 416 -48 384 -48
WIRE 464 -48 416 -48
WIRE 512 -48 464 -48
WIRE 560 -48 512 -48
WIRE 208 -16 176 -16
WIRE 208 0 208 -16
WIRE 192 16 176 16
WIRE 224 16 224 -48
WIRE 608 32 240 32
WIRE 192 48 176 48
WIRE 256 96 176 96
WIRE 256 112 256 96
WIRE 240 128 176 128
WIRE 272 128 272 -48
WIRE 608 144 288 144
WIRE 240 160 176 160
WIRE 304 208 176 208
WIRE 304 224 304 208
WIRE 288 240 176 240
WIRE 320 240 320 -48
WIRE 608 256 336 256
WIRE 288 272 176 272
WIRE 352 336 176 336
WIRE 352 352 352 336
WIRE 336 368 176 368
WIRE 368 368 368 -48
WIRE 608 384 384 384
WIRE 336 400 176 400
WIRE 400 448 176 448
WIRE 400 464 400 448
WIRE 384 480 176 480
WIRE 416 480 416 -48
WIRE 608 496 432 496
WIRE 384 512 176 512
WIRE 448 560 176 560
WIRE 448 576 448 560
WIRE 432 592 176 592
WIRE 464 592 464 -48
WIRE 608 608 480 608
WIRE 432 624 176 624
WIRE 496 672 176 672
WIRE 496 688 496 672
WIRE 480 704 176 704
WIRE 512 704 512 -48
WIRE 608 720 528 720
WIRE 480 736 176 736
WIRE 544 784 176 784
WIRE 544 800 544 784
WIRE 528 816 176 816
WIRE 560 816 560 -48
WIRE 608 832 576 832
WIRE 528 848 176 848
WIRE 224 880 224 48
WIRE 272 880 272 160
WIRE 272 880 224 880
WIRE 320 880 320 272
WIRE 320 880 272 880
WIRE 368 880 368 400
WIRE 368 880 320 880
WIRE 400 880 368 880
WIRE 416 880 416 512
WIRE 416 880 400 880
WIRE 464 880 464 624
WIRE 464 880 416 880
WIRE 512 880 512 736
WIRE 512 880 464 880
WIRE 560 880 560 848
WIRE 560 880 512 880
WIRE 400 896 400 880
FLAG 176 16 a0
IOPIN 176 16 In
FLAG 176 48 b0
IOPIN 176 48 In
FLAG 176 128 a1
IOPIN 176 128 In
FLAG 176 160 b1
IOPIN 176 160 In
FLAG 176 272 b2
IOPIN 176 272 In
FLAG 176 240 a2
IOPIN 176 240 In
FLAG 176 400 b3
IOPIN 176 400 In
FLAG 176 368 a3
IOPIN 176 368 In
FLAG 176 512 b4
IOPIN 176 512 In
FLAG 176 480 a4
IOPIN 176 480 In
FLAG 176 624 b5
IOPIN 176 624 In
FLAG 176 592 a5
IOPIN 176 592 In
FLAG 176 736 b6
IOPIN 176 736 In
FLAG 176 704 a6
IOPIN 176 704 In
FLAG 176 848 b7
IOPIN 176 848 In
FLAG 176 816 a7
IOPIN 176 816 In
FLAG 608 32 out0
IOPIN 608 32 Out
FLAG 608 144 out1
IOPIN 608 144 Out
FLAG 608 256 out2
IOPIN 608 256 Out
FLAG 608 384 out3
IOPIN 608 384 Out
FLAG 608 496 out4
IOPIN 608 496 Out
FLAG 608 608 out5
IOPIN 608 608 Out
FLAG 608 720 out6
IOPIN 608 720 Out
FLAG 608 832 out7
IOPIN 608 832 Out
FLAG 176 -16 sel
IOPIN 176 -16 In
FLAG 176 96 sel
IOPIN 176 96 In
FLAG 176 208 sel
IOPIN 176 208 In
FLAG 176 336 sel
IOPIN 176 336 In
FLAG 176 448 sel
IOPIN 176 448 In
FLAG 176 560 sel
IOPIN 176 560 In
FLAG 176 672 sel
IOPIN 176 672 In
FLAG 176 784 sel
IOPIN 176 784 In
FLAG 384 -64 vdd
IOPIN 384 -64 BiDir
FLAG 400 896 vss
IOPIN 400 896 BiDir
SYMBOL mux 208 32 R0
SYMATTR InstName X1
SYMBOL mux 256 144 R0
SYMATTR InstName X2
SYMBOL mux 304 256 R0
SYMATTR InstName X3
SYMBOL mux 352 384 R0
SYMATTR InstName X4
SYMBOL mux 400 496 R0
SYMATTR InstName X5
SYMBOL mux 448 608 R0
SYMATTR InstName X6
SYMBOL mux 496 720 R0
SYMATTR InstName X7
SYMBOL mux 544 832 R0
SYMATTR InstName X8
