Version 4
SHEET 1 1636 1396
WIRE 208 -96 32 -96
WIRE 352 -96 208 -96
WIRE 496 -96 352 -96
WIRE 640 -96 496 -96
WIRE 784 -96 640 -96
WIRE 928 -96 784 -96
WIRE 1072 -96 928 -96
WIRE 1216 -96 1072 -96
WIRE 208 -16 208 -96
WIRE 352 -16 352 -96
WIRE 496 -16 496 -96
WIRE 640 -16 640 -96
WIRE 784 -16 784 -96
WIRE 928 -16 928 -96
WIRE 1072 -16 1072 -96
WIRE 1216 -16 1216 -96
WIRE 160 0 160 -112
WIRE 176 0 160 0
WIRE 256 0 240 0
WIRE 304 0 304 -112
WIRE 320 0 304 0
WIRE 400 0 384 0
WIRE 448 0 448 -112
WIRE 464 0 448 0
WIRE 544 0 528 0
WIRE 592 0 592 -112
WIRE 608 0 592 0
WIRE 688 0 672 0
WIRE 736 0 736 -112
WIRE 752 0 736 0
WIRE 832 0 816 0
WIRE 880 0 880 -128
WIRE 896 0 880 0
WIRE 976 0 960 0
WIRE 1024 0 1024 -128
WIRE 1040 0 1024 0
WIRE 1120 0 1104 0
WIRE 1168 0 1168 -128
WIRE 1184 0 1168 0
WIRE 1264 0 1248 0
WIRE 128 16 128 -112
WIRE 176 16 128 16
WIRE 272 16 272 -112
WIRE 320 16 272 16
WIRE 416 16 416 -112
WIRE 464 16 416 16
WIRE 560 16 560 -112
WIRE 608 16 560 16
WIRE 704 16 704 -112
WIRE 752 16 704 16
WIRE 848 16 848 -128
WIRE 896 16 848 16
WIRE 992 16 992 -128
WIRE 1040 16 992 16
WIRE 1136 16 1136 -128
WIRE 1184 16 1136 16
WIRE 64 32 64 -112
WIRE 176 32 64 32
WIRE 320 32 240 32
WIRE 464 32 384 32
WIRE 608 32 528 32
WIRE 752 32 672 32
WIRE 896 32 816 32
WIRE 1040 32 960 32
WIRE 1184 32 1104 32
WIRE 1408 32 1248 32
WIRE 208 128 208 48
WIRE 208 128 32 128
WIRE 352 128 352 48
WIRE 352 128 208 128
WIRE 496 128 496 48
WIRE 496 128 352 128
WIRE 640 128 640 48
WIRE 640 128 496 128
WIRE 784 128 784 48
WIRE 784 128 640 128
WIRE 928 128 928 48
WIRE 928 128 784 128
WIRE 1072 128 1072 48
WIRE 1072 128 928 128
WIRE 1216 128 1216 48
WIRE 1216 128 1072 128
WIRE 256 176 256 0
WIRE 400 176 400 0
WIRE 544 176 544 0
WIRE 688 176 688 0
WIRE 832 176 832 0
WIRE 976 176 976 0
WIRE 1120 176 1120 0
WIRE 1264 176 1264 0
WIRE 1408 176 1408 32
FLAG 128 -112 a0
IOPIN 128 -112 In
FLAG 160 -112 b0
IOPIN 160 -112 In
FLAG 256 176 sum0
IOPIN 256 176 Out
FLAG 400 176 sum1
IOPIN 400 176 Out
FLAG 544 176 sum2
IOPIN 544 176 Out
FLAG 688 176 sum3
IOPIN 688 176 Out
FLAG 832 176 sum4
IOPIN 832 176 Out
FLAG 976 176 sum5
IOPIN 976 176 Out
FLAG 1120 176 sum6
IOPIN 1120 176 Out
FLAG 1264 176 sum7
IOPIN 1264 176 Out
FLAG 1408 176 carry
IOPIN 1408 176 Out
FLAG 272 -112 a1
IOPIN 272 -112 In
FLAG 304 -112 b1
IOPIN 304 -112 In
FLAG 416 -112 a2
IOPIN 416 -112 In
FLAG 448 -112 b2
IOPIN 448 -112 In
FLAG 560 -112 a3
IOPIN 560 -112 In
FLAG 592 -112 b3
IOPIN 592 -112 In
FLAG 704 -112 a4
IOPIN 704 -112 In
FLAG 736 -112 b4
IOPIN 736 -112 In
FLAG 848 -128 a5
IOPIN 848 -128 In
FLAG 880 -128 b5
IOPIN 880 -128 In
FLAG 992 -128 a6
IOPIN 992 -128 In
FLAG 1024 -128 b6
IOPIN 1024 -128 In
FLAG 1136 -128 a7
IOPIN 1136 -128 In
FLAG 1168 -128 b7
IOPIN 1168 -128 In
FLAG 32 -96 vdd
IOPIN 32 -96 BiDir
FLAG 32 128 vss
IOPIN 32 128 BiDir
FLAG 64 -112 c
IOPIN 64 -112 In
SYMBOL full_adder 208 0 R0
SYMATTR InstName X1
SYMBOL full_adder 352 0 R0
SYMATTR InstName X2
SYMBOL full_adder 496 0 R0
SYMATTR InstName X3
SYMBOL full_adder 640 0 R0
SYMATTR InstName X4
SYMBOL full_adder 784 0 R0
SYMATTR InstName X5
SYMBOL full_adder 928 0 R0
SYMATTR InstName X6
SYMBOL full_adder 1072 0 R0
SYMATTR InstName X7
SYMBOL full_adder 1216 0 R0
SYMATTR InstName X8
