Version 4
SHEET 1 880 2080
WIRE 64 112 64 96
WIRE 96 112 96 96
WIRE 528 112 528 96
WIRE 560 112 560 96
WIRE -320 128 -320 112
WIRE -336 144 -352 144
WIRE -240 144 -288 144
WIRE 48 144 -32 144
WIRE 224 144 144 144
WIRE 512 144 432 144
WIRE 688 144 608 144
WIRE -320 176 -320 160
WIRE 64 192 64 176
WIRE 96 192 96 176
WIRE 528 192 528 176
WIRE 560 192 560 176
WIRE -320 352 -320 336
WIRE -352 368 -352 144
WIRE -336 368 -352 368
WIRE -240 368 -288 368
WIRE 64 368 64 352
WIRE 96 368 96 352
WIRE 528 368 528 352
WIRE 560 368 560 352
WIRE -320 400 -320 384
WIRE 48 400 -32 400
WIRE 224 400 144 400
WIRE 512 400 432 400
WIRE 688 400 608 400
WIRE 64 448 64 432
WIRE 96 448 96 432
WIRE 528 448 528 432
WIRE 560 448 560 432
WIRE -416 496 -416 480
WIRE -432 512 -448 512
WIRE -352 512 -352 368
WIRE -352 512 -384 512
WIRE -416 544 -416 528
WIRE 64 624 64 608
WIRE 96 624 96 608
WIRE 528 624 528 608
WIRE 560 624 560 608
WIRE -320 640 -320 624
WIRE -352 656 -352 512
WIRE -336 656 -352 656
WIRE -240 656 -288 656
WIRE 48 656 -32 656
WIRE 224 656 144 656
WIRE 512 656 432 656
WIRE 688 656 608 656
WIRE -320 688 -320 672
WIRE 64 704 64 688
WIRE 96 704 96 688
WIRE 528 704 528 688
WIRE 560 704 560 688
WIRE -320 864 -320 848
WIRE -352 880 -352 656
WIRE -336 880 -352 880
WIRE -240 880 -288 880
WIRE 64 880 64 864
WIRE 96 880 96 864
WIRE 528 880 528 864
WIRE 560 880 560 864
WIRE -320 912 -320 896
WIRE 48 912 -32 912
WIRE 224 912 144 912
WIRE 512 912 432 912
WIRE 688 912 608 912
WIRE 64 960 64 944
WIRE 96 960 96 944
WIRE 528 960 528 944
WIRE 560 960 560 944
FLAG -32 144 in0
IOPIN -32 144 In
FLAG 64 96 vdd
IOPIN 64 96 BiDir
FLAG 64 192 vss
IOPIN 64 192 BiDir
FLAG -32 400 in1
IOPIN -32 400 In
FLAG 64 352 vdd
IOPIN 64 352 BiDir
FLAG 64 448 vss
IOPIN 64 448 BiDir
FLAG -32 656 in2
IOPIN -32 656 In
FLAG 64 608 vdd
IOPIN 64 608 BiDir
FLAG 64 704 vss
IOPIN 64 704 BiDir
FLAG 224 144 out0
IOPIN 224 144 In
FLAG 224 400 out1
IOPIN 224 400 In
FLAG 224 656 out2
IOPIN 224 656 In
FLAG -32 912 in3
IOPIN -32 912 In
FLAG 64 864 vdd
IOPIN 64 864 BiDir
FLAG 64 960 vss
IOPIN 64 960 BiDir
FLAG 224 912 out3
IOPIN 224 912 In
FLAG 432 144 in4
IOPIN 432 144 In
FLAG 528 96 vdd
IOPIN 528 96 BiDir
FLAG 528 192 vss
IOPIN 528 192 BiDir
FLAG 688 144 out4
IOPIN 688 144 In
FLAG 432 400 in5
IOPIN 432 400 In
FLAG 528 352 vdd
IOPIN 528 352 BiDir
FLAG 528 448 vss
IOPIN 528 448 BiDir
FLAG 688 400 out5
IOPIN 688 400 In
FLAG 432 656 in6
IOPIN 432 656 In
FLAG 528 608 vdd
IOPIN 528 608 BiDir
FLAG 528 704 vss
IOPIN 528 704 BiDir
FLAG 688 656 out6
IOPIN 688 656 In
FLAG 432 912 in7
IOPIN 432 912 In
FLAG 528 864 vdd
IOPIN 528 864 BiDir
FLAG 528 960 vss
IOPIN 528 960 BiDir
FLAG 688 912 out7
IOPIN 688 912 In
FLAG -416 480 vdd
IOPIN -416 480 BiDir
FLAG -416 544 vss
IOPIN -416 544 BiDir
FLAG -448 512 ~e
IOPIN -448 512 In
FLAG -320 400 vss
IOPIN -320 400 BiDir
FLAG -320 336 vdd
IOPIN -320 336 BiDir
FLAG -320 688 vss
IOPIN -320 688 BiDir
FLAG -320 624 vdd
IOPIN -320 624 BiDir
FLAG -320 912 vss
IOPIN -320 912 BiDir
FLAG -320 848 vdd
IOPIN -320 848 BiDir
FLAG -320 176 vss
IOPIN -320 176 BiDir
FLAG -320 112 vdd
IOPIN -320 112 BiDir
FLAG -240 144 e0
FLAG -240 368 e1
FLAG -240 656 ~e0
FLAG 96 192 ~e0
FLAG 96 96 e0
FLAG 96 448 ~e0
FLAG 96 352 e0
FLAG -240 880 ~e1
FLAG 96 704 ~e0
FLAG 96 960 ~e0
FLAG 96 608 e0
FLAG 96 864 e0
FLAG 560 96 e1
FLAG 560 352 e1
FLAG 560 608 e1
FLAG 560 864 e1
FLAG 560 960 ~e1
FLAG 560 704 ~e1
FLAG 560 448 ~e1
FLAG 560 192 ~e1
SYMBOL transmission_gate 96 144 R0
WINDOW 0 43 -41 Bottom 2
SYMATTR InstName X1
SYMBOL transmission_gate 96 400 R0
WINDOW 0 43 -41 Bottom 2
SYMATTR InstName X2
SYMBOL transmission_gate 96 656 R0
WINDOW 0 43 -41 Bottom 2
SYMATTR InstName X3
SYMBOL transmission_gate 96 912 R0
WINDOW 0 43 -41 Bottom 2
SYMATTR InstName X4
SYMBOL transmission_gate 560 144 R0
WINDOW 0 43 -41 Bottom 2
SYMATTR InstName X5
SYMBOL transmission_gate 560 400 R0
WINDOW 0 43 -41 Bottom 2
SYMATTR InstName X6
SYMBOL transmission_gate 560 656 R0
WINDOW 0 43 -41 Bottom 2
SYMATTR InstName X7
SYMBOL transmission_gate 560 912 R0
WINDOW 0 43 -41 Bottom 2
SYMATTR InstName X8
SYMBOL not -432 512 R0
SYMATTR InstName X9
SYMBOL buffer -336 144 R0
SYMATTR InstName X12
SYMBOL not -336 656 R0
SYMATTR InstName X10
SYMBOL not -336 880 R0
SYMATTR InstName X11
SYMBOL buffer -336 368 R0
SYMATTR InstName X13
