Version 4
SHEET 1 880 3128
WIRE 208 640 208 624
WIRE 192 656 128 656
WIRE 192 688 128 688
WIRE 256 688 240 688
WIRE 192 720 -112 720
WIRE 208 752 208 736
WIRE 208 928 208 912
WIRE 192 944 128 944
WIRE 192 976 128 976
WIRE 256 976 240 976
WIRE -112 1008 -112 720
WIRE 192 1008 -112 1008
WIRE 208 1040 208 1024
WIRE 208 1216 208 1200
WIRE 192 1232 128 1232
WIRE 192 1264 128 1264
WIRE 256 1264 240 1264
WIRE 192 1296 -80 1296
WIRE 208 1328 208 1312
WIRE 208 1504 208 1488
WIRE 192 1520 128 1520
WIRE 192 1552 128 1552
WIRE 256 1552 240 1552
WIRE -80 1584 -80 1296
WIRE 192 1584 -80 1584
WIRE 208 1616 208 1600
WIRE -336 1648 -336 1632
WIRE -112 1648 -112 1008
WIRE -112 1648 -176 1648
WIRE -384 1680 -432 1680
WIRE -224 1680 -224 1664
WIRE -80 1680 -80 1584
WIRE -80 1680 -176 1680
WIRE -240 1696 -272 1696
WIRE -384 1712 -432 1712
WIRE -80 1712 -176 1712
WIRE -224 1728 -224 1712
WIRE -112 1744 -176 1744
WIRE -336 1760 -336 1744
WIRE 208 1792 208 1776
WIRE 192 1808 128 1808
WIRE 192 1840 128 1840
WIRE 256 1840 240 1840
WIRE -80 1872 -80 1712
WIRE 192 1872 -80 1872
WIRE -192 1904 -240 1904
WIRE 208 1904 208 1888
WIRE -288 1936 -288 1904
WIRE -192 1936 -240 1936
WIRE -304 1952 -352 1952
WIRE -192 1968 -240 1968
WIRE -288 2000 -288 1968
WIRE -192 2000 -240 2000
WIRE 208 2080 208 2064
WIRE 192 2096 128 2096
WIRE 192 2128 128 2128
WIRE 256 2128 240 2128
WIRE -80 2160 -80 1872
WIRE 192 2160 -80 2160
WIRE 208 2192 208 2176
WIRE 208 2368 208 2352
WIRE 192 2384 128 2384
WIRE 192 2416 128 2416
WIRE 256 2416 240 2416
WIRE -112 2448 -112 1744
WIRE 192 2448 -112 2448
WIRE 208 2480 208 2464
WIRE 208 2656 208 2640
WIRE 192 2672 128 2672
WIRE 192 2704 128 2704
WIRE 256 2704 240 2704
WIRE -112 2736 -112 2448
WIRE 192 2736 -112 2736
WIRE 208 2768 208 2752
FLAG 208 752 vss
IOPIN 208 752 BiDir
FLAG 208 624 vdd
IOPIN 208 624 BiDir
FLAG 208 1040 vss
IOPIN 208 1040 BiDir
FLAG 208 912 vdd
IOPIN 208 912 BiDir
FLAG 208 1328 vss
IOPIN 208 1328 BiDir
FLAG 208 1200 vdd
IOPIN 208 1200 BiDir
FLAG 208 1616 vss
IOPIN 208 1616 BiDir
FLAG 208 1488 vdd
IOPIN 208 1488 BiDir
FLAG 208 1904 vss
IOPIN 208 1904 BiDir
FLAG 208 1776 vdd
IOPIN 208 1776 BiDir
FLAG 208 2192 vss
IOPIN 208 2192 BiDir
FLAG 208 2064 vdd
IOPIN 208 2064 BiDir
FLAG 208 2480 vss
IOPIN 208 2480 BiDir
FLAG 208 2352 vdd
IOPIN 208 2352 BiDir
FLAG 208 2768 vss
IOPIN 208 2768 BiDir
FLAG 208 2640 vdd
IOPIN 208 2640 BiDir
FLAG 128 656 d0
IOPIN 128 656 BiDir
FLAG 128 944 d1
IOPIN 128 944 BiDir
FLAG 128 1232 d2
IOPIN 128 1232 BiDir
FLAG 128 1520 d3
IOPIN 128 1520 BiDir
FLAG 128 1808 d4
IOPIN 128 1808 BiDir
FLAG 128 2096 d5
IOPIN 128 2096 BiDir
FLAG 128 2384 d6
IOPIN 128 2384 BiDir
FLAG 128 2672 d7
IOPIN 128 2672 BiDir
FLAG -224 1728 vss
IOPIN -224 1728 BiDir
FLAG -224 1664 vdd
IOPIN -224 1664 BiDir
FLAG 256 688 q0
IOPIN 256 688 BiDir
FLAG 256 976 q1
IOPIN 256 976 BiDir
FLAG 256 1264 q2
IOPIN 256 1264 BiDir
FLAG 256 1552 q3
IOPIN 256 1552 BiDir
FLAG 256 1840 q4
IOPIN 256 1840 BiDir
FLAG 256 2128 q5
IOPIN 256 2128 BiDir
FLAG 256 2416 q6
IOPIN 256 2416 BiDir
FLAG 256 2704 q7
IOPIN 256 2704 BiDir
FLAG -352 1952 ~oe
IOPIN -352 1952 In
FLAG -288 2000 vss
IOPIN -288 2000 BiDir
FLAG -288 1904 vdd
IOPIN -288 1904 BiDir
FLAG -192 1904 oe0
FLAG -192 1936 oe1
FLAG -192 1968 oe2
FLAG -192 2000 oe3
FLAG 128 688 oe0
FLAG 128 976 oe0
FLAG 128 1264 oe1
FLAG 128 1552 oe1
FLAG 128 1840 oe2
FLAG 128 2128 oe2
FLAG 128 2416 oe3
FLAG 128 2704 oe3
FLAG -432 1712 ie
IOPIN -432 1712 In
FLAG -432 1680 clk
IOPIN -432 1680 In
FLAG -336 1760 vss
IOPIN -336 1760 BiDir
FLAG -336 1632 vdd
IOPIN -336 1632 BiDir
SYMBOL 1_to_4_not -224 1696 R0
WINDOW 0 55 -68 Bottom 2
SYMATTR InstName X15
SYMBOL 1_to_4_not -288 1952 R0
SYMATTR InstName X11
SYMBOL tri_state_d_flip_flop 208 688 R0
SYMATTR InstName X1
SYMBOL tri_state_d_flip_flop 208 976 R0
SYMATTR InstName X4
SYMBOL tri_state_d_flip_flop 208 1264 R0
SYMATTR InstName X5
SYMBOL tri_state_d_flip_flop 208 1552 R0
SYMATTR InstName X6
SYMBOL tri_state_d_flip_flop 208 1840 R0
SYMATTR InstName X7
SYMBOL tri_state_d_flip_flop 208 2128 R0
SYMATTR InstName X8
SYMBOL tri_state_d_flip_flop 208 2416 R0
SYMATTR InstName X9
SYMBOL tri_state_d_flip_flop 208 2704 R0
SYMATTR InstName X10
SYMBOL clock_gate -320 1696 R0
WINDOW 0 13 -58 Bottom 2
SYMATTR InstName X2
