Version 4
SHEET 1 880 680
WIRE 208 80 128 80
WIRE 288 80 208 80
WIRE 368 80 368 64
WIRE 368 80 288 80
WIRE 448 80 368 80
WIRE 528 80 448 80
WIRE 608 80 528 80
WIRE 128 96 128 80
WIRE 112 112 80 112
WIRE 208 128 208 80
WIRE 112 144 80 144
WIRE 176 144 176 128
WIRE 192 144 176 144
WIRE 288 160 288 80
WIRE 192 176 80 176
WIRE 256 176 256 160
WIRE 272 176 256 176
WIRE 368 192 368 80
WIRE 272 208 80 208
WIRE 336 208 336 192
WIRE 352 208 336 208
WIRE 448 224 448 80
WIRE 352 240 80 240
WIRE 416 240 416 224
WIRE 432 240 416 240
WIRE 528 256 528 80
WIRE 432 272 80 272
WIRE 496 272 496 256
WIRE 512 272 496 272
WIRE 608 288 608 80
WIRE 512 304 80 304
WIRE 576 304 576 288
WIRE 592 304 576 304
WIRE 672 320 656 320
WIRE 592 336 80 336
WIRE 128 368 128 160
WIRE 208 368 208 192
WIRE 208 368 128 368
WIRE 288 368 288 224
WIRE 288 368 208 368
WIRE 368 368 368 256
WIRE 368 368 288 368
WIRE 448 368 448 288
WIRE 448 368 368 368
WIRE 528 368 528 320
WIRE 528 368 448 368
WIRE 608 368 608 352
WIRE 608 368 528 368
WIRE 368 384 368 368
FLAG 368 64 vdd
IOPIN 368 64 BiDir
FLAG 368 384 vss
IOPIN 368 384 BiDir
FLAG 80 112 in0
IOPIN 80 112 In
FLAG 80 144 in1
IOPIN 80 144 In
FLAG 80 176 in2
IOPIN 80 176 In
FLAG 80 208 in3
IOPIN 80 208 In
FLAG 80 240 in4
IOPIN 80 240 In
FLAG 80 272 in5
IOPIN 80 272 In
FLAG 80 304 in6
IOPIN 80 304 In
FLAG 80 336 in7
IOPIN 80 336 In
FLAG 672 320 out
IOPIN 672 320 Out
SYMBOL or 144 64 R0
SYMATTR InstName X1
SYMBOL or 224 96 R0
SYMATTR InstName X2
SYMBOL or 304 128 R0
SYMATTR InstName X3
SYMBOL or 384 160 R0
SYMATTR InstName X4
SYMBOL or 464 192 R0
SYMATTR InstName X5
SYMBOL or 544 224 R0
SYMATTR InstName X6
SYMBOL or 624 256 R0
SYMATTR InstName X7
