Version 4
SHEET 1 880 680
WIRE 64 16 64 0
WIRE 64 16 16 16
WIRE 112 16 64 16
WIRE 16 48 16 16
WIRE 0 64 -16 64
WIRE 112 64 112 16
WIRE 96 80 64 80
WIRE 160 80 144 80
WIRE 0 96 -16 96
WIRE 16 176 16 112
WIRE 64 176 16 176
WIRE 112 176 112 96
WIRE 112 176 64 176
WIRE 64 192 64 176
FLAG -16 64 a
IOPIN -16 64 In
FLAG -16 96 b
IOPIN -16 96 In
FLAG 64 0 vdd
IOPIN 64 0 BiDir
FLAG 64 192 vss
IOPIN 64 192 BiDir
FLAG 160 80 out
IOPIN 160 80 Out
SYMBOL nand 32 16 R0
SYMATTR InstName X1
SYMBOL not 96 80 R0
SYMATTR InstName X2
SYMATTR Value ""
