Version 4
SHEET 1 880 680
WIRE -48 48 -48 32
WIRE 32 48 32 32
WIRE -64 64 -112 64
WIRE 16 64 -16 64
WIRE 112 64 64 64
WIRE -48 96 -48 80
WIRE 32 96 32 80
FLAG -112 64 in
IOPIN -112 64 In
FLAG -48 32 vdd
IOPIN -48 32 BiDir
FLAG 112 64 out
IOPIN 112 64 Out
FLAG -48 96 vss
IOPIN -48 96 BiDir
FLAG 32 96 vss
IOPIN 32 96 BiDir
FLAG 32 32 vdd
IOPIN 32 32 BiDir
SYMBOL not -64 64 R0
WINDOW 0 53 -34 Bottom 2
SYMATTR InstName X3
SYMBOL not 16 64 R0
WINDOW 0 53 -34 Bottom 2
SYMATTR InstName X1
