Version 4
SHEET 1 880 680
WIRE 336 112 336 96
WIRE 320 128 288 128
WIRE 160 144 160 128
WIRE 416 144 384 144
WIRE 144 160 48 160
WIRE 320 160 192 160
WIRE 128 192 48 192
WIRE 224 192 192 192
WIRE 336 192 336 176
WIRE 160 224 160 208
WIRE 224 224 224 192
FLAG 48 160 e
IOPIN 48 160 In
FLAG 48 192 clk
IOPIN 48 192 In
FLAG 288 128 clk
IOPIN 288 128 In
FLAG 160 224 vss
IOPIN 160 224 BiDir
FLAG 160 128 vdd
IOPIN 160 128 BiDir
FLAG 336 192 vss
IOPIN 336 192 BiDir
FLAG 336 96 vdd
IOPIN 336 96 BiDir
FLAG 224 304 vss
IOPIN 224 304 BiDir
FLAG 416 144 ~clk
IOPIN 416 144 Out
SYMBOL res 208 208 R0
SYMATTR InstName R1
SYMATTR Value 100k
SYMBOL d_latch 160 176 R0
WINDOW 0 -46 -40 Bottom 2
SYMATTR InstName X2
SYMBOL nand 352 80 R0
SYMATTR InstName X1
