Version 4
SHEET 1 880 680
WIRE -32 112 -32 96
WIRE 144 112 144 96
WIRE -48 128 -144 128
WIRE 128 128 0 128
WIRE 192 128 176 128
WIRE -128 160 -144 160
WIRE -64 160 -128 160
WIRE 16 160 0 160
WIRE 192 160 176 160
WIRE -32 192 -32 176
WIRE 16 192 16 160
WIRE 144 192 144 176
WIRE -80 336 -80 320
WIRE -128 352 -128 160
WIRE -96 352 -128 352
WIRE 112 352 112 160
WIRE 112 352 -48 352
WIRE -80 384 -80 368
FLAG 144 192 vss
IOPIN 144 192 BiDir
FLAG 144 96 vdd
IOPIN 144 96 BiDir
FLAG -144 160 clk
IOPIN -144 160 In
FLAG -144 128 d
IOPIN -144 128 In
FLAG 192 128 q
IOPIN 192 128 Out
FLAG 192 160 nq
IOPIN 192 160 Out
FLAG -32 192 vss
IOPIN -32 192 BiDir
FLAG -80 320 vdd
IOPIN -80 320 BiDir
FLAG -32 96 vdd
IOPIN -32 96 BiDir
FLAG -80 384 vss
IOPIN -80 384 BiDir
FLAG 16 272 vss
IOPIN 16 272 BiDir
SYMBOL d_latch 144 144 R0
WINDOW 0 36 -38 Bottom 2
SYMATTR InstName X1
SYMBOL d_latch -32 144 R0
WINDOW 0 39 -40 Bottom 2
SYMATTR InstName X3
SYMBOL not -96 352 R0
WINDOW 0 37 -31 Bottom 2
SYMATTR InstName X2
SYMBOL res 0 176 R0
SYMATTR InstName R1
SYMATTR Value 100k
