Version 4
SHEET 1 880 680
WIRE 272 -16 224 -16
WIRE 288 -16 288 -32
WIRE 288 -16 272 -16
WIRE 352 -16 288 -16
WIRE 272 16 272 -16
WIRE 256 32 112 32
WIRE 416 48 320 48
WIRE 256 64 160 64
WIRE 352 80 352 -16
WIRE 112 96 112 32
WIRE 336 96 112 96
WIRE 416 112 400 112
WIRE 224 128 224 -16
WIRE 336 128 288 128
WIRE 160 144 160 64
WIRE 208 144 160 144
WIRE 288 144 288 128
WIRE 288 144 256 144
WIRE 112 208 112 96
WIRE 160 208 160 144
WIRE 224 240 224 160
WIRE 272 240 272 80
WIRE 272 240 224 240
WIRE 288 240 272 240
WIRE 352 240 352 144
WIRE 352 240 288 240
WIRE 288 256 288 240
FLAG 160 208 sel
IOPIN 160 208 In
FLAG 112 208 in
IOPIN 112 208 In
FLAG 288 -32 vdd
IOPIN 288 -32 BiDir
FLAG 288 256 vss
IOPIN 288 256 BiDir
FLAG 416 48 b
IOPIN 416 48 Out
FLAG 416 112 a
IOPIN 416 112 Out
SYMBOL and 288 -16 R0
SYMATTR InstName X1
SYMBOL not 208 144 R0
SYMATTR InstName X2
SYMBOL and 368 48 R0
SYMATTR InstName X3
