Version 4
SHEET 1 1928 1824
WIRE 1184 -16 -144 -16
WIRE -80 96 -80 80
WIRE -144 112 -144 -16
WIRE -96 112 -144 112
WIRE 0 128 -32 128
WIRE -96 144 -144 144
WIRE -80 176 -80 160
WIRE 400 224 400 208
WIRE 48 240 48 224
WIRE 384 240 368 240
WIRE 0 256 0 128
WIRE 32 256 0 256
WIRE 608 256 448 256
WIRE 224 272 96 272
WIRE 384 272 224 272
WIRE 32 288 0 288
WIRE 912 288 912 272
WIRE 400 304 400 288
WIRE 896 304 800 304
WIRE 1088 304 1088 288
WIRE 48 320 48 304
WIRE 688 320 688 304
WIRE 1072 320 960 320
WIRE 1248 320 1120 320
WIRE 608 336 608 256
WIRE 672 336 608 336
WIRE 896 336 720 336
WIRE 1072 352 1008 352
WIRE 1184 352 1184 -16
WIRE 1184 352 1120 352
WIRE 1248 352 1184 352
WIRE 672 368 608 368
WIRE 848 368 720 368
WIRE 912 368 912 352
WIRE -80 384 -80 368
WIRE 1088 384 1088 368
WIRE -96 400 -144 400
WIRE 304 400 304 384
WIRE 688 400 688 384
WIRE 0 416 0 288
WIRE 0 416 -32 416
WIRE 144 416 144 400
WIRE 224 416 224 272
WIRE 288 416 224 416
WIRE 480 416 480 400
WIRE -96 432 -144 432
WIRE 128 432 112 432
WIRE 464 432 352 432
WIRE 288 448 192 448
WIRE 608 448 608 368
WIRE 608 448 528 448
WIRE -80 464 -80 448
WIRE 128 464 112 464
WIRE 464 464 448 464
WIRE 304 480 304 464
WIRE 144 496 144 480
WIRE 480 496 480 480
WIRE 912 560 912 544
WIRE 848 576 848 368
WIRE 896 576 848 576
WIRE 688 592 688 576
WIRE 1008 592 1008 352
WIRE 1008 592 960 592
WIRE 672 608 640 608
WIRE 800 608 800 304
WIRE 800 608 720 608
WIRE 896 608 800 608
WIRE 688 640 688 624
WIRE 912 640 912 624
FLAG 112 432 ~ie
IOPIN 112 432 In
FLAG 112 464 ~t
IOPIN 112 464 In
FLAG 448 464 clk
IOPIN 448 464 In
FLAG 368 240 clk
IOPIN 368 240 In
FLAG 640 608 clk
IOPIN 640 608 In
FLAG 400 208 vdd
IOPIN 400 208 BiDir
FLAG 480 400 vdd
IOPIN 480 400 BiDir
FLAG 688 304 vdd
IOPIN 688 304 BiDir
FLAG 912 272 vdd
IOPIN 912 272 BiDir
FLAG 1088 288 vdd
IOPIN 1088 288 BiDir
FLAG 912 544 vdd
IOPIN 912 544 BiDir
FLAG 688 576 vdd
IOPIN 688 576 BiDir
FLAG 304 384 vdd
IOPIN 304 384 BiDir
FLAG 144 400 vdd
IOPIN 144 400 BiDir
FLAG 304 480 vss
IOPIN 304 480 BiDir
FLAG 144 496 vss
IOPIN 144 496 BiDir
FLAG 480 496 vss
IOPIN 480 496 BiDir
FLAG 688 400 vss
IOPIN 688 400 BiDir
FLAG 688 640 vss
IOPIN 688 640 BiDir
FLAG 912 640 vss
IOPIN 912 640 BiDir
FLAG 912 368 vss
IOPIN 912 368 BiDir
FLAG 1088 384 vss
IOPIN 1088 384 BiDir
FLAG 400 304 vss
IOPIN 400 304 BiDir
FLAG 1248 320 q
IOPIN 1248 320 In
FLAG 1248 352 ~q
IOPIN 1248 352 In
FLAG -144 432 d
IOPIN -144 432 In
FLAG -144 144 ~t
IOPIN -144 144 In
FLAG 48 224 vdd
IOPIN 48 224 BiDir
FLAG -80 80 vdd
IOPIN -80 80 BiDir
FLAG -80 368 vdd
IOPIN -80 368 BiDir
FLAG -80 176 vss
IOPIN -80 176 BiDir
FLAG -80 464 vss
IOPIN -80 464 BiDir
FLAG 48 320 vss
IOPIN 48 320 BiDir
FLAG -144 400 ~ie
IOPIN -144 400 In
SYMBOL sr_latch 704 352 R0
WINDOW 0 20 -44 Bottom 2
SYMATTR InstName X8
SYMBOL nor 496 384 R0
WINDOW 0 15 12 Left 2
SYMATTR InstName X12
SYMBOL nor 416 192 R0
WINDOW 0 13 15 Left 2
SYMATTR InstName X13
SYMBOL not 672 608 R0
WINDOW 0 62 -24 Bottom 2
SYMATTR InstName X15
SYMBOL nor 928 528 R0
WINDOW 0 11 23 Left 2
SYMATTR InstName X14
SYMBOL nor 928 256 R0
WINDOW 0 19 10 Left 2
SYMATTR InstName X16
SYMBOL sr_latch 1104 336 R0
WINDOW 0 36 -44 Bottom 2
SYMATTR InstName X17
SYMBOL nor 64 208 R0
WINDOW 0 9 24 Left 2
SYMATTR InstName X1
SYMBOL nor -64 64 R0
WINDOW 0 9 24 Left 2
SYMATTR InstName X5
SYMBOL nor -64 352 R0
WINDOW 0 9 24 Left 2
SYMATTR InstName X9
SYMBOL nand 160 384 R0
SYMATTR InstName X6
SYMBOL nand 320 368 R0
SYMATTR InstName X7
