Version 4
SHEET 1 880 680
WIRE 128 128 64 128
WIRE 224 128 224 112
WIRE 224 128 128 128
WIRE 288 128 224 128
WIRE 384 128 288 128
WIRE 128 144 128 128
WIRE 0 160 -16 160
WIRE 96 160 0 160
WIRE 192 176 176 176
WIRE 240 176 192 176
WIRE 288 176 288 128
WIRE 16 192 -16 192
WIRE 96 192 16 192
WIRE 240 192 240 176
WIRE 256 192 240 192
WIRE 448 208 336 208
WIRE 256 224 240 224
WIRE 176 240 -16 240
WIRE 240 240 240 224
WIRE 240 240 176 240
WIRE 64 288 64 128
WIRE 16 304 16 192
WIRE 48 304 16 304
WIRE 320 320 112 320
WIRE 384 320 384 128
WIRE 0 336 0 160
WIRE 48 336 0 336
WIRE 320 336 320 320
WIRE 368 336 320 336
WIRE 224 352 224 128
WIRE 448 352 432 352
WIRE 192 368 192 176
WIRE 208 368 192 368
WIRE 368 368 320 368
WIRE 320 384 320 368
WIRE 320 384 272 384
WIRE 176 400 176 240
WIRE 208 400 176 400
WIRE 64 432 64 352
WIRE 128 432 128 208
WIRE 128 432 64 432
WIRE 224 432 224 416
WIRE 224 432 128 432
WIRE 288 432 288 240
WIRE 288 432 224 432
WIRE 384 432 384 384
WIRE 384 432 288 432
WIRE 224 448 224 432
FLAG -16 160 a
IOPIN -16 160 In
FLAG -16 192 b
IOPIN -16 192 In
FLAG 224 448 vss
IOPIN 224 448 BiDir
FLAG 224 112 vdd
IOPIN 224 112 BiDir
FLAG -16 240 c
IOPIN -16 240 In
FLAG 448 208 sum
IOPIN 448 208 Out
FLAG 448 352 carry
IOPIN 448 352 Out
SYMBOL xor 144 112 R0
SYMATTR InstName X1
SYMBOL and 80 256 R0
SYMATTR InstName X2
SYMBOL and 240 320 R0
SYMATTR InstName X4
SYMBOL xor 304 144 R0
SYMATTR InstName X5
SYMBOL or 400 288 R0
SYMATTR InstName X3
