Version 4
SHEET 1 880 680
WIRE 96 128 96 112
WIRE 96 128 64 128
WIRE 128 128 96 128
WIRE 128 144 128 128
WIRE 0 160 -32 160
WIRE 96 160 0 160
WIRE 192 176 176 176
WIRE 16 192 -32 192
WIRE 96 192 16 192
WIRE 64 240 64 128
WIRE 16 256 16 192
WIRE 48 256 16 256
WIRE 192 272 112 272
WIRE 0 288 0 160
WIRE 48 288 0 288
WIRE 64 320 64 304
WIRE 96 320 64 320
WIRE 128 320 128 208
WIRE 128 320 96 320
WIRE 96 336 96 320
FLAG -32 160 a
IOPIN -32 160 In
FLAG -32 192 b
IOPIN -32 192 In
FLAG 192 272 carry
IOPIN 192 272 Out
FLAG 192 176 sum
IOPIN 192 176 Out
FLAG 96 336 vss
IOPIN 96 336 BiDir
FLAG 96 112 vdd
IOPIN 96 112 BiDir
SYMBOL xor 144 112 R0
SYMATTR InstName X1
SYMBOL and 80 208 R0
SYMATTR InstName X2
