Version 4
SHEET 1 880 680
WIRE 352 -160 -144 -160
WIRE -112 -112 -112 -128
WIRE 176 -112 176 -128
WIRE -144 -96 -144 -160
WIRE -128 -96 -144 -96
WIRE 160 -96 64 -96
WIRE -128 -80 -256 -80
WIRE -48 -80 -64 -80
WIRE 240 -80 224 -80
WIRE -128 -64 -160 -64
WIRE 160 -64 128 -64
WIRE -112 -32 -112 -48
WIRE 176 -32 176 -48
WIRE 0 16 0 0
WIRE 288 16 288 0
WIRE -48 32 -48 -80
WIRE -16 32 -48 32
WIRE 64 32 64 -96
WIRE 64 32 32 32
WIRE 240 32 240 -80
WIRE 272 32 240 32
WIRE 336 32 320 32
WIRE 384 32 336 32
WIRE -208 48 -240 48
WIRE -160 48 -160 -64
WIRE -160 48 -208 48
WIRE 128 48 128 -64
WIRE 128 48 96 48
WIRE -16 64 -48 64
WIRE 64 64 32 64
WIRE 272 64 240 64
WIRE 352 64 352 -160
WIRE 352 64 320 64
WIRE 384 64 352 64
WIRE 0 96 0 80
WIRE 288 96 288 80
WIRE -112 144 -112 128
WIRE 176 144 176 128
WIRE -160 160 -160 48
WIRE -128 160 -160 160
WIRE 128 160 128 48
WIRE 160 160 128 160
WIRE -128 176 -256 176
WIRE -48 176 -48 64
WIRE -48 176 -64 176
WIRE 240 176 240 64
WIRE 240 176 224 176
WIRE -128 192 -144 192
WIRE 64 192 64 64
WIRE 160 192 64 192
WIRE -112 224 -112 208
WIRE 176 224 176 208
WIRE -144 256 -144 192
WIRE 336 256 336 32
WIRE 336 256 -144 256
WIRE -16 304 -16 288
WIRE -208 320 -208 48
WIRE -32 320 -208 320
WIRE 96 320 96 48
WIRE 96 320 16 320
WIRE -16 352 -16 336
FLAG -112 -128 vdd
IOPIN -112 -128 BiDir
FLAG 176 -128 vdd
IOPIN 176 -128 BiDir
FLAG 288 0 vdd
IOPIN 288 0 BiDir
FLAG -112 128 vdd
IOPIN -112 128 BiDir
FLAG 176 128 vdd
IOPIN 176 128 BiDir
FLAG 0 0 vdd
IOPIN 0 0 BiDir
FLAG -112 224 vss
IOPIN -112 224 BiDir
FLAG 176 -32 vss
IOPIN 176 -32 BiDir
FLAG -112 -32 vss
IOPIN -112 -32 BiDir
FLAG 176 224 vss
IOPIN 176 224 BiDir
FLAG 288 96 vss
IOPIN 288 96 BiDir
FLAG 0 96 vss
IOPIN 0 96 BiDir
FLAG -16 352 vss
IOPIN -16 352 BiDir
FLAG -16 288 vdd
IOPIN -16 288 BiDir
FLAG 384 32 q
IOPIN 384 32 Out
FLAG 384 64 nq
IOPIN 384 64 Out
FLAG -256 -80 j
IOPIN -256 -80 In
FLAG -256 176 k
IOPIN -256 176 In
FLAG -240 48 clk
IOPIN -240 48 In
SYMBOL sr_latch 304 48 R0
WINDOW 0 16 -32 Bottom 2
SYMATTR InstName X1
SYMBOL sr_latch 16 48 R0
WINDOW 0 15 -33 Bottom 2
SYMATTR InstName X2
SYMBOL not -32 320 R0
WINDOW 0 45 -39 Bottom 2
SYMATTR InstName X4
SYMBOL and 192 112 R0
SYMATTR InstName X5
SYMBOL 3_way_and -96 112 R0
SYMATTR InstName X6
SYMBOL and 192 -144 R0
SYMATTR InstName X3
SYMBOL 3_way_and -96 -144 R0
SYMATTR InstName X7
