Version 4
SHEET 1 920 680
WIRE -160 -192 -160 -208
WIRE -288 -176 -288 -192
WIRE 464 -176 -144 -176
WIRE -208 -160 -272 -160
WIRE -336 -144 -368 -144
WIRE -96 -144 -144 -144
WIRE -256 -128 -272 -128
WIRE -160 -112 -160 -128
WIRE -288 -96 -288 -112
WIRE 128 -16 128 -32
WIRE -368 0 -368 -144
WIRE 64 0 -368 0
WIRE 112 0 64 0
WIRE 368 0 368 -16
WIRE 352 16 176 16
WIRE 112 32 32 32
WIRE 528 32 400 32
WIRE 352 48 288 48
WIRE 128 64 128 48
WIRE 464 64 464 -176
WIRE 464 64 400 64
WIRE 336 80 320 80
WIRE -192 112 -192 96
WIRE 368 112 368 96
WIRE -368 128 -368 0
WIRE -208 128 -368 128
WIRE -96 144 -96 -144
WIRE -96 144 -160 144
WIRE -32 144 -32 80
WIRE -32 144 -96 144
WIRE 32 144 32 32
WIRE 32 144 -32 144
WIRE -208 160 -272 160
WIRE 32 176 -160 176
WIRE -224 192 -240 192
WIRE -192 224 -192 208
WIRE 176 240 176 224
WIRE 64 256 64 0
WIRE 160 256 64 256
WIRE 288 272 288 48
WIRE 288 272 224 272
WIRE 32 288 32 176
WIRE 160 288 32 288
WIRE 176 320 176 304
WIRE -240 416 -240 192
WIRE -240 416 -272 416
WIRE 320 416 320 80
WIRE 320 416 -240 416
FLAG -272 416 ~clk
IOPIN -272 416 In
FLAG -32 80 q0
IOPIN -32 80 Out
FLAG 528 32 q1
IOPIN 528 32 Out
FLAG -272 160 vdd
IOPIN -272 160 BiDir
FLAG -192 224 vss
IOPIN -192 224 BiDir
FLAG 368 112 vss
IOPIN 368 112 BiDir
FLAG 368 -16 vdd
IOPIN 368 -16 BiDir
FLAG -192 96 vdd
IOPIN -192 96 BiDir
FLAG 128 64 vss
IOPIN 128 64 BiDir
FLAG 128 -32 vdd
IOPIN 128 -32 BiDir
FLAG 176 224 vdd
IOPIN 176 224 BiDir
FLAG 176 320 vss
IOPIN 176 320 BiDir
FLAG -256 -128 rst
IOPIN -256 -128 In
FLAG -160 -112 vss
IOPIN -160 -112 BiDir
FLAG -160 -208 vdd
IOPIN -160 -208 BiDir
FLAG -288 -192 vdd
IOPIN -288 -192 BiDir
FLAG -288 -96 vss
IOPIN -288 -96 BiDir
SYMBOL jk_flip_flop -144 160 R0
WINDOW 0 -10 -54 Bottom 2
SYMATTR InstName X1
SYMBOL jk_flip_flop 416 48 R0
SYMATTR InstName X2
SYMBOL nand 192 208 R0
SYMATTR InstName X4
SYMBOL and 144 -48 R0
SYMATTR InstName X5
SYMBOL nor -176 -224 M0
WINDOW 0 13 22 Left 2
SYMATTR InstName X3
SYMBOL nor -304 -208 M0
WINDOW 0 15 22 Left 2
SYMATTR InstName X6
