Version 4
SHEET 1 880 680
WIRE 112 32 48 32
WIRE 176 32 112 32
WIRE 192 32 192 16
WIRE 192 32 176 32
WIRE 320 32 192 32
WIRE 112 64 112 32
WIRE 96 80 -112 80
WIRE 256 96 160 96
WIRE 96 112 -16 112
WIRE 320 112 320 32
WIRE 256 128 256 96
WIRE 304 128 256 128
WIRE 384 144 368 144
WIRE 176 160 176 32
WIRE 304 160 256 160
WIRE 160 176 -64 176
WIRE 256 192 256 160
WIRE 256 192 224 192
WIRE 160 208 144 208
WIRE 48 224 48 32
WIRE -16 240 -16 112
WIRE 32 240 -16 240
WIRE 144 240 144 208
WIRE 144 240 80 240
WIRE -112 288 -112 80
WIRE -64 288 -64 176
WIRE -16 288 -16 240
WIRE 48 320 48 256
WIRE 112 320 112 128
WIRE 112 320 48 320
WIRE 176 320 176 224
WIRE 176 320 112 320
WIRE 192 320 176 320
WIRE 320 320 320 176
WIRE 320 320 192 320
WIRE 192 336 192 320
FLAG -64 288 a
IOPIN -64 288 In
FLAG -112 288 b
IOPIN -112 288 In
FLAG -16 288 sel
IOPIN -16 288 In
FLAG 192 336 vss
IOPIN 192 336 BiDir
FLAG 192 16 vdd
IOPIN 192 16 BiDir
FLAG 384 144 out
IOPIN 384 144 Out
SYMBOL not 32 240 R0
SYMATTR InstName X3
SYMBOL nand 128 32 R0
SYMATTR InstName X1
SYMBOL nand 336 80 R0
SYMATTR InstName X2
SYMBOL nand 192 128 R0
SYMATTR InstName X4
