Version 4
SHEET 1 880 680
WIRE -224 -304 -224 -320
WIRE -224 -192 -224 -224
WIRE -160 -192 -224 -192
WIRE -224 -176 -224 -192
WIRE -160 -128 -224 -128
WIRE -272 -96 -288 -96
WIRE -224 -64 -224 -80
WIRE -192 -16 -224 -16
WIRE -272 16 -288 16
WIRE -224 64 -224 32
WIRE -192 64 -192 -16
WIRE -160 64 -160 -128
FLAG -160 -192 out
IOPIN -160 -192 Out
FLAG -288 -96 a
IOPIN -288 -96 In
FLAG -288 16 b
IOPIN -288 16 In
FLAG -224 64 vss
IOPIN -224 64 BiDir
FLAG -224 -320 vdd
IOPIN -224 -320 BiDir
FLAG -192 64 vss
IOPIN -192 64 BiDir
FLAG -160 64 vss
IOPIN -160 64 BiDir
SYMBOL res -240 -320 R0
SYMATTR InstName R1
SYMATTR Value 1k
SYMBOL nmos_4t -272 -176 R0
SYMATTR InstName X1
SYMBOL nmos_4t -272 -64 R0
SYMATTR InstName X2
