Version 4
SHEET 1 880 680
WIRE 128 128 128 112
WIRE 320 208 320 192
WIRE 416 208 416 192
WIRE 512 208 512 192
WIRE 128 224 128 208
WIRE 176 224 128 224
WIRE 304 224 256 224
WIRE 400 224 352 224
WIRE 496 224 448 224
WIRE 592 224 544 224
WIRE 128 240 128 224
WIRE 320 256 320 240
WIRE 416 256 416 240
WIRE 512 256 512 240
WIRE 128 320 128 304
FLAG 128 112 vdd
IOPIN 128 112 BiDir
FLAG 128 320 vss
IOPIN 128 320 BiDir
FLAG 320 256 vss
IOPIN 320 256 BiDir
FLAG 416 256 vss
IOPIN 416 256 BiDir
FLAG 320 192 vdd
IOPIN 320 192 BiDir
FLAG 512 256 vss
IOPIN 512 256 BiDir
FLAG 416 192 vdd
IOPIN 416 192 BiDir
FLAG 512 192 vdd
IOPIN 512 192 BiDir
FLAG 592 224 rst
IOPIN 592 224 Out
SYMBOL cap 144 304 R180
WINDOW 0 24 56 Left 2
WINDOW 3 24 8 Left 2
SYMATTR InstName C1
SYMATTR Value 100n
SYMBOL res 112 112 R0
SYMATTR InstName R1
SYMATTR Value 34
SYMBOL schmitt_trigger_not 304 224 R0
WINDOW 0 68 -52 Bottom 2
SYMATTR InstName X1
SYMBOL schmitt_trigger_not 400 224 R0
WINDOW 0 67 -50 Bottom 2
SYMATTR InstName X2
SYMBOL not 496 224 R0
WINDOW 0 62 -51 Bottom 2
SYMATTR InstName X3
SYMBOL res 160 240 R270
WINDOW 0 32 56 VTop 2
WINDOW 3 0 56 VBottom 2
SYMATTR InstName R2
SYMATTR Value 1k
