Version 4
SHEET 1 880 680
WIRE 176 -96 176 -112
WIRE 176 16 176 -16
WIRE 304 16 176 16
WIRE 384 16 304 16
WIRE 176 48 176 16
WIRE 208 96 176 96
WIRE 304 112 304 16
WIRE 128 128 64 128
WIRE 176 160 176 144
WIRE 288 160 176 160
WIRE 400 160 384 160
WIRE 176 176 176 160
WIRE 336 176 336 160
WIRE 208 224 176 224
WIRE 128 256 64 256
WIRE 208 272 208 224
FLAG 64 256 in
IOPIN 64 256 In
FLAG 176 272 vss
IOPIN 176 272 BiDir
FLAG 176 -112 vdd
IOPIN 176 -112 BiDir
FLAG 384 16 out
IOPIN 384 16 Out
FLAG 208 272 vss
IOPIN 208 272 BiDir
FLAG 208 96 vss
IOPIN 208 96 BiDir
FLAG 400 160 vdd
IOPIN 400 160 BiDir
FLAG 336 176 vss
IOPIN 336 176 BiDir
FLAG 64 128 in
IOPIN 64 128 In
SYMBOL res 160 -112 R0
SYMATTR InstName R1
SYMATTR Value 1k
SYMBOL nmos_4t 128 176 R0
SYMATTR InstName X1
SYMBOL nmos_4t 128 48 R0
SYMATTR InstName X2
SYMBOL nmos_4t 384 112 R90
SYMATTR InstName X3
