Version 4
SHEET 1 880 680
WIRE 208 16 208 -16
WIRE 240 80 240 64
WIRE 192 160 192 64
WIRE 192 160 112 160
WIRE 288 160 288 64
WIRE 368 160 288 160
WIRE 192 256 192 160
WIRE 240 256 240 240
WIRE 288 256 288 160
WIRE 272 336 272 304
FLAG 112 160 in
IOPIN 112 160 In
FLAG 272 336 e
IOPIN 272 336 In
FLAG 368 160 out
IOPIN 368 160 Out
FLAG 208 -16 ~e
IOPIN 208 -16 In
FLAG 240 80 vdd
IOPIN 240 80 BiDir
FLAG 240 240 vss
IOPIN 240 240 BiDir
SYMBOL pmos_4t 288 16 R90
WINDOW 0 14 -47 VRight 2
SYMATTR InstName X1
SYMBOL nmos_4t 192 304 R270
SYMATTR InstName X2
