Version 4
SHEET 1 880 680
WIRE 112 48 112 32
WIRE 0 64 -112 64
WIRE 96 64 0 64
WIRE 224 64 224 32
WIRE 176 80 160 80
WIRE -96 96 -112 96
WIRE 96 96 -96 96
WIRE 256 112 256 32
WIRE 256 112 224 112
WIRE 112 128 112 112
WIRE 224 176 224 160
WIRE 400 176 224 176
WIRE 224 192 224 176
WIRE 48 240 48 224
WIRE 256 240 224 240
WIRE 0 256 0 64
WIRE 32 256 0 256
WIRE -64 272 -64 256
WIRE 176 272 96 272
WIRE -96 288 -96 96
WIRE -80 288 -96 288
WIRE 32 288 -32 288
WIRE -64 320 -64 304
WIRE 48 320 48 304
WIRE 224 320 224 288
WIRE 256 320 256 240
FLAG -112 64 in
IOPIN -112 64 In
FLAG -112 96 e
IOPIN -112 96 In
FLAG 224 320 vss
IOPIN 224 320 BiDir
FLAG 224 32 vdd
IOPIN 224 32 BiDir
FLAG 400 176 out
IOPIN 400 176 Out
FLAG -64 320 vss
IOPIN -64 320 BiDir
FLAG 48 320 vss
IOPIN 48 320 BiDir
FLAG 112 128 vss
IOPIN 112 128 BiDir
FLAG 112 32 vdd
IOPIN 112 32 BiDir
FLAG 48 224 vdd
IOPIN 48 224 BiDir
FLAG -64 256 vdd
IOPIN -64 256 BiDir
FLAG 256 32 vdd
IOPIN 256 32 BiDir
FLAG 256 320 vss
IOPIN 256 320 BiDir
SYMBOL nand 128 16 R0
SYMATTR InstName X1
SYMBOL nor 64 208 R0
WINDOW 0 17 22 Left 2
SYMATTR InstName X2
SYMBOL not -80 288 R0
WINDOW 0 53 -34 Bottom 2
SYMATTR InstName X3
SYMBOL pmos_4t 176 160 M180
SYMATTR InstName X4
SYMBOL nmos_4t 176 192 R0
SYMATTR InstName X5
